<?xml version="1.0" encoding="UTF-8"?>

<!-- generated on 2026-02-03T23:06:08.549090+05:45 by Eclipse SUMO netedit 1.25.0
<neteditConfiguration xmlns:xsi="http://www.w3.org/2001/XMLSchema-instance" xsi:noNamespaceSchemaLocation="http://sumo.dlr.de/xsd/neteditConfiguration.xsd">

    <input>
        <sumo-net-file value="map.net.xml"/>
    </input>

    <output>
        <output-file value="map.net.xml"/>
    </output>

    <processing>
        <geometry.min-radius.fix.railways value="false"/>
        <geometry.avoid-overlap value="false"/>
        <geometry.max-grade.fix value="false"/>
        <offset.disable-normalization value="true"/>
        <lefthand value="1"/>
    </processing>

    <junctions>
        <no-turnarounds value="true"/>
        <junctions.corner-detail value="5"/>
        <junctions.limit-turn-speed value="5.50"/>
        <rectangular-lane-cut value="0"/>
    </junctions>

    <pedestrian>
        <walkingareas value="0"/>
    </pedestrian>

</neteditConfiguration>
-->

<net version="1.20" junctionCornerDetail="5" lefthand="true" limitTurnSpeed="5.50" avoidOverlap="0" xmlns:xsi="http://www.w3.org/2001/XMLSchema-instance" xsi:noNamespaceSchemaLocation="http://sumo.dlr.de/xsd/net_file.xsd">

    <location netOffset="0.00,0.00" convBoundary="-314.92,-258.82,298.83,478.54" origBoundary="-10000000000.00,-10000000000.00,10000000000.00,10000000000.00" projParameter="!"/>

    <edge id=":J12_0" function="internal">
        <lane id=":J12_0_0" index="0" speed="13.89" length="7.08" width="5.00" shape="1.42,-42.62 2.52,-40.83 3.22,-39.56 3.67,-38.19 4.03,-36.14"/>
    </edge>
    <edge id=":M1_0" function="internal">
        <lane id=":M1_0_0" index="0" speed="13.89" length="3.19" width="4.00" shape="36.79,57.87 35.45,54.98"/>
    </edge>
    <edge id=":M1_1" function="internal">
        <lane id=":M1_1_0" index="0" speed="13.89" length="3.11" width="4.00" shape="33.14,59.49 31.84,56.67"/>
    </edge>
    <edge id=":M2_0" function="internal">
        <lane id=":M2_0_0" index="0" speed="13.89" length="6.82" width="3.50" shape="14.74,21.23 14.30,23.41 14.01,24.94 13.98,26.45 14.34,28.62"/>
        <lane id=":M2_0_1" index="1" speed="13.89" length="6.82" width="3.50" shape="18.19,21.82 17.81,23.61 17.54,24.85 17.48,26.09 17.76,27.86"/>
    </edge>
    <edge id=":M2_2" function="internal">
        <lane id=":M2_2_0" index="0" speed="11.33" length="7.27" width="3.50" shape="10.29,22.82 11.89,24.27 12.99,25.34 13.75,26.60 14.34,28.62"/>
    </edge>
    <edge id=":M3_0" function="internal">
        <lane id=":M3_0_0" index="0" speed="13.89" length="7.28" width="4.00" shape="-26.43,10.06 -24.27,10.13 -22.78,10.15 -21.31,10.04 -19.18,9.69"/>
    </edge>
    <edge id=":M4_0" function="internal">
        <lane id=":M4_0_0" index="0" speed="13.89" length="6.02" width="5.00" shape="-29.23,7.45 -27.58,6.87 -26.35,6.80 -25.09,6.81 -23.35,6.45"/>
    </edge>
    <edge id=":M5_0" function="internal">
        <lane id=":M5_0_0" index="0" speed="13.89" length="20.07" width="3.00" shape="25.04,-3.52 23.43,-9.16 22.36,-13.06 21.70,-17.01 21.31,-22.84"/>
        <lane id=":M5_0_1" index="1" speed="13.89" length="20.07" width="3.00" shape="21.64,-2.69 20.07,-8.49 19.15,-12.58 18.64,-16.73 18.31,-22.72"/>
    </edge>
    <edge id=":M5_2" function="internal">
        <lane id=":M5_2_0" index="0" speed="13.89" length="18.93" width="3.00" shape="15.16,-3.76 18.38,-8.94 20.34,-12.76 21.26,-16.85 21.31,-22.84"/>
        <lane id=":M5_2_1" index="1" speed="13.89" length="18.93" width="3.00" shape="12.95,-6.81 15.76,-11.09 17.47,-14.26 18.26,-17.69 18.31,-22.72"/>
    </edge>
    <edge id=":M5_4" function="internal">
        <lane id=":M5_4_0" index="0" speed="13.89" length="20.06" width="3.00" shape="25.86,-3.72 23.71,-6.81 22.41,-10.92 21.69,-16.21 21.31,-22.84"/>
    </edge>
    <edge id=":M6_0" function="internal">
        <lane id=":M6_0_0" index="0" speed="12.89" length="6.57" width="3.00" shape="27.65,4.82 29.56,4.82 30.86,4.53 32.10,3.95 33.86,3.10"/>
    </edge>
    <edge id=":M6_1" function="internal">
        <lane id=":M6_1_0" index="0" speed="13.89" length="5.70" width="3.00" shape="28.33,4.30 29.90,3.75 31.08,3.66 32.26,3.60 33.86,3.10"/>
    </edge>
    <edge id=":M6_2" function="internal">
        <lane id=":M6_2_0" index="0" speed="10.69" length="9.85" width="3.00" shape="24.56,1.65 27.28,2.80 29.26,3.67 31.22,3.90 33.86,3.10"/>
    </edge>
    <edge id=":M8_0" function="internal">
        <lane id=":M8_0_0" index="0" speed="13.89" length="2.98" width="2.75" shape="-65.17,45.95 -63.26,43.66"/>
    </edge>
    <edge id=":M8_1" function="internal">
        <lane id=":M8_1_0" index="0" speed="13.89" length="3.01" width="3.20" shape="-67.56,43.98 -65.57,41.71"/>
    </edge>
    <edge id=":T1_0" function="internal">
        <lane id=":T1_0_0" index="0" speed="10.02" length="17.40" width="3.50" shape="24.52,20.38 23.96,14.44 24.38,9.79 25.78,6.44 28.15,4.39"/>
    </edge>
    <edge id=":T1_1" function="internal">
        <lane id=":T1_1_0" index="0" speed="13.89" length="20.05" width="3.50" shape="24.52,20.38 24.31,16.59 24.63,12.33 25.18,7.12 25.60,0.52"/>
        <lane id=":T1_1_1" index="1" speed="13.89" length="20.05" width="3.50" shape="24.52,20.38 23.76,16.58 22.89,12.29 22.22,7.04 22.11,0.40"/>
    </edge>
    <edge id=":T2_0" function="internal">
        <lane id=":T2_0_0" index="0" speed="13.89" length="9.08" width="3.20" shape="20.98,22.51 21.34,19.69 22.09,17.74 22.57,15.84 22.09,13.17"/>
        <lane id=":T2_0_1" index="1" speed="13.89" length="9.08" width="3.20" shape="20.98,22.51 20.85,19.99 20.53,18.28 19.96,16.62 19.08,14.24"/>
    </edge>
    <edge id=":T3_0" function="internal">
        <lane id=":T3_0_0" index="0" speed="13.89" length="18.79" width="4.00" shape="-1.02,3.41 3.31,3.27 8.36,3.48 13.41,3.84 17.75,4.17"/>
    </edge>
    <edge id=":T3_1" function="internal">
        <lane id=":T3_1_0" index="0" speed="12.56" length="17.88" width="3.50" shape="-1.02,3.41 4.71,2.49 9.30,1.02 12.75,-1.01 15.06,-3.59"/>
        <lane id=":T3_1_1" index="1" speed="12.67" length="17.88" width="3.50" shape="-1.02,3.41 2.80,2.48 6.39,0.49 9.73,-2.55 12.84,-6.64"/>
    </edge>
    <edge id=":T4_0" function="internal">
        <lane id=":T4_0_0" index="0" speed="13.89" length="23.71" width="3.50" shape="10.28,-17.89 13.63,5.56"/>
        <lane id=":T4_0_1" index="1" speed="13.89" length="23.71" width="3.50" shape="13.25,-18.30 17.11,5.11"/>
    </edge>
    <edge id=":T4_2" function="internal">
        <lane id=":T4_2_0" index="0" speed="12.69" length="23.80" width="3.50" shape="13.25,-18.30 14.83,-10.75 17.20,-4.92 20.36,-0.82 24.31,1.56"/>
    </edge>
    <edge id=":T5_0" function="internal">
        <lane id=":T5_0_0" index="0" speed="13.89" length="1.64" width="3.50" shape="38.37,-2.27 37.92,-2.08 37.62,-1.94 37.31,-1.83 36.84,-1.70"/>
    </edge>
    <edge id=":clusterJ0_M10_0" function="internal">
        <lane id=":clusterJ0_M10_0_0" index="0" speed="13.89" length="8.23" width="5.00" shape="1.41,-0.38 -0.99,-0.39 -2.62,-0.89 -4.26,-1.41 -6.66,-1.50"/>
    </edge>
    <edge id=":clusterJ1_M7_0" function="internal">
        <lane id=":clusterJ1_M7_0_0" index="0" speed="13.89" length="11.51" width="3.00" shape="-10.54,-6.58 -13.10,-4.79 -15.12,-3.51 -17.40,-2.49 -20.75,-1.49"/>
    </edge>
    <edge id=":clusterJ1_M7_1" function="internal">
        <lane id=":clusterJ1_M7_1_0" index="0" speed="13.89" length="11.71" width="3.00" shape="-8.63,-1.32 -11.71,-0.90 -14.05,-0.33 -16.53,0.43 -19.98,1.42"/>
    </edge>

    <edge id="-E2" from="J6" to="T5" priority="-1" shape="298.45,-163.68 217.35,-122.81 209.07,-116.53 199.54,-110.38 158.69,-84.73 124.02,-61.27 42.97,-3.05 40.47,-1.51 37.98,-0.49">
        <lane id="-E2_0" index="0" speed="13.89" length="307.42" width="3.00" shape="298.23,-165.25 216.55,-124.09 208.21,-117.76 198.73,-111.65 157.87,-85.99 123.16,-62.50 42.14,-4.30 39.79,-2.85 38.37,-2.27"/>
    </edge>
    <edge id="E0" from="M1" to="T1" priority="-1" shape="34.47,57.60 33.57,55.68 27.49,41.41 25.39,34.92 23.95,29.55 22.96,23.34 21.94,16.90">
        <lane id="E0_0" index="0" speed="13.89" length="36.46" width="4.00" shape="35.45,54.98 35.40,54.86 29.37,40.71 27.31,34.35 25.91,29.13 24.94,23.03 24.52,20.38"/>
    </edge>
    <edge id="E1" from="M1" to="T2" priority="-1" shape="30.60,58.85 23.58,42.34 21.76,36.71 20.14,31.31 19.00,23.84 18.89,17.58">
        <lane id="E1_0" index="0" speed="13.89" length="36.05" width="4.00" shape="31.84,56.67 25.46,41.64 23.67,36.11 22.10,30.87 21.00,23.67 20.98,22.51"/>
    </edge>
    <edge id="E10" from="clusterJ1_M7" to="J65" priority="-1" shape="-18.02,2.45 -24.14,4.06 -32.17,6.84 -37.59,10.21 -41.09,12.67 -44.28,14.95 -47.82,18.27 -51.35,21.90 -305.28,329.04 -314.92,336.95">
        <lane id="E10_0" index="0" speed="13.89" length="449.11" width="3.00" shape="-20.75,-1.49 -25.45,-0.25 -34.12,2.75 -40.07,6.46 -43.69,9.00 -47.14,11.46 -50.97,15.06 -54.70,18.89 -308.47,325.84 -317.11,332.93"/>
        <lane id="E10_1" index="1" speed="13.89" length="449.11" width="3.00" shape="-19.98,1.42 -24.58,2.62 -32.82,5.48 -38.42,8.96 -41.96,11.45 -45.23,13.79 -48.87,17.20 -52.47,20.90 -306.34,327.97 -315.21,335.25"/>
    </edge>
    <edge id="E11" from="clusterJ0_M10" to="clusterJ1_M7" priority="-1" shape="-0.97,0.42 -4.09,0.77 -8.10,1.14 -10.93,1.41">
        <lane id="E11_0" index="0" speed="13.89" length="1.97" width="5.00" shape="-6.66,-1.50 -8.33,-1.35 -8.63,-1.32"/>
    </edge>
    <edge id="E14" from="M8" to="M4" priority="-1" shape="-67.34,41.34 -59.46,31.81 -50.81,21.62 -46.73,17.49 -43.71,14.84 -36.49,9.57 -32.88,7.47 -29.94,6.02">
        <lane id="E14_0" index="0" speed="13.89" length="50.43" width="3.20" shape="-65.57,41.71 -58.23,32.84 -49.63,22.70 -45.63,18.66 -42.71,16.09 -35.61,10.91 -32.12,8.88 -29.23,7.45"/>
    </edge>
    <edge id="E15" from="M8" to="M3" priority="-1" shape="-65.27,43.92 -46.83,22.04 -42.05,17.77 -35.33,12.80 -32.66,11.05 -27.89,8.66 -24.68,8.72 -20.70,8.88">
        <lane id="E15_0" index="0" speed="13.89" length="50.66" width="2.75" shape="-63.26,43.66 -45.84,23.00 -41.18,18.84 -34.54,13.93 -31.97,12.24 -27.58,10.04 -26.43,10.06"/>
    </edge>
    <edge id="E16" from="M3" to="M2" priority="-1" shape="-19.55,7.72 -13.24,6.54 -10.10,6.76 -5.66,7.39 -2.23,9.14 0.75,10.89 3.27,12.82 6.58,15.84 9.52,19.30 15.50,25.05">
        <lane id="E16_0" index="0" speed="13.89" length="34.63" width="4.00" shape="-19.18,9.69 -13.12,8.55 -10.31,8.75 -6.27,9.32 -3.19,10.89 -0.37,12.55 1.99,14.36 5.14,17.23 8.06,20.67 10.29,22.82"/>
    </edge>
    <edge id="E17" from="T4" to="M2" priority="-1" shape="16.16,-15.82 20.57,18.24 19.58,24.05">
        <lane id="E17_0" index="0" speed="13.89" length="16.34" width="3.50" shape="13.63,5.56 15.26,18.13 14.74,21.23"/>
        <lane id="E17_1" index="1" speed="13.89" length="16.34" width="3.50" shape="17.11,5.11 18.80,18.20 18.19,21.82"/>
    </edge>
    <edge id="E18" from="M2" to="J28" priority="-1" shape="18.92,25.00 20.76,33.31 22.88,40.26 24.58,44.55 26.05,48.15 27.00,50.52 28.55,53.75 33.68,65.63 54.16,111.89 59.58,124.02 140.72,306.95 148.11,322.36 155.95,337.52 162.99,353.56 175.04,375.34 181.15,387.95 192.07,400.91 203.69,415.50 215.38,431.99 230.26,450.70 238.74,460.48 262.19,478.54">
        <lane id="E18_0" index="0" speed="13.89" length="520.09" width="3.50" shape="14.34,28.62 15.68,34.65 17.92,42.00 19.71,46.51 21.18,50.12 22.19,52.63 23.77,55.93 28.87,67.73 49.36,114.02 54.78,126.16 135.95,309.15 143.41,324.70 151.21,339.78 158.28,355.89 170.38,377.76 176.71,390.83 188.01,404.24 199.49,418.66 211.18,435.14 226.22,454.06 235.12,464.32 258.99,482.70"/>
        <lane id="E18_1" index="1" speed="13.89" length="520.09" width="3.50" shape="17.76,27.86 19.07,33.76 21.23,40.84 22.96,45.20 24.43,48.81 25.40,51.22 26.96,54.48 32.08,66.33 52.56,112.60 57.98,124.73 139.13,307.68 146.54,323.14 154.37,338.27 161.42,354.34 173.49,376.15 179.67,388.91 190.72,402.02 202.29,416.55 213.98,433.04 228.91,451.82 237.53,461.76 261.12,479.93"/>
    </edge>
    <edge id="E2" from="M6" to="J6" priority="-1" shape="37.32,-0.10 40.71,-1.62 42.71,-2.94 123.75,-60.94 158.74,-84.67 199.63,-110.49 209.02,-116.43 217.59,-122.91 298.83,-164.06">
        <lane id="E2_0" index="0" speed="13.89" length="313.86" width="3.00" shape="33.86,3.10 41.43,-0.30 43.56,-1.70 124.61,-59.71 159.56,-83.41 200.43,-109.22 209.87,-115.20 218.39,-121.63 299.51,-162.72"/>
    </edge>
    <edge id="E20" from="T4" to="M6" priority="-1" shape="16.16,-15.82 16.68,-12.62 20.01,-2.15 21.79,-1.17 25.64,0.17 27.99,0.79 31.31,1.12 37.32,-0.10">
        <lane id="E20_0" index="0" speed="13.89" length="0.26" width="3.50" shape="24.31,1.56 24.56,1.65"/>
    </edge>
    <edge id="E21" from="M5" to="J49" priority="-1" shape="16.98,-18.66 16.73,-24.69 16.60,-31.22 16.76,-35.36 15.94,-40.92 13.43,-47.90 7.42,-59.40 -5.90,-81.46 -78.40,-200.18 -82.73,-204.50 -93.23,-216.33 -100.44,-225.62 -104.09,-232.11 -106.30,-240.27 -108.10,-248.38 -109.18,-258.82">
        <lane id="E21_0" index="0" speed="13.89" length="272.18" width="3.00" shape="21.31,-22.84 21.23,-24.83 21.10,-31.18 21.27,-35.60 20.33,-42.02 17.56,-49.71 11.34,-61.61 -2.05,-83.80 -74.84,-202.99 -79.46,-207.59 -89.77,-219.21 -96.68,-228.12 -99.89,-233.83 -101.93,-241.35 -103.65,-249.10 -104.70,-259.28"/>
        <lane id="E21_1" index="1" speed="13.89" length="272.18" width="3.00" shape="18.31,-22.72 18.23,-24.74 18.10,-31.21 18.26,-35.44 17.40,-41.29 14.81,-48.50 8.73,-60.14 -4.62,-82.24 -77.21,-201.12 -81.64,-205.53 -92.08,-217.29 -99.19,-226.45 -102.69,-232.68 -104.84,-240.63 -106.62,-248.62 -107.69,-258.97"/>
    </edge>
    <edge id="E22" from="M4" to="T3" priority="-1" shape="-24.11,4.07 -19.67,2.65 -14.50,1.76 -10.95,1.85 -6.07,1.41 -1.27,0.92">
        <lane id="E22_0" index="0" speed="13.89" length="22.66" width="5.00" shape="-23.35,6.45 -19.07,5.08 -14.32,4.27 -10.87,4.35 -5.83,3.90 -1.02,3.41"/>
    </edge>
    <edge id="E23" from="T3" to="M5" priority="-1" shape="-0.57,-1.15 8.09,-2.25 11.00,-7.02 13.23,-10.47 16.98,-18.66">
        <lane id="E23_0" index="0" speed="13.89" length="0.20" width="3.50" shape="15.06,-3.59 15.16,-3.76"/>
        <lane id="E23_1" index="1" speed="13.89" length="0.20" width="3.50" shape="12.84,-6.64 12.95,-6.81"/>
    </edge>
    <edge id="E24" from="T3" to="M6" priority="-1" shape="-1.10,1.20 4.93,1.24 17.46,2.15 22.84,2.50 27.56,2.40 30.64,1.59 37.32,-0.10">
        <lane id="E24_0" index="0" speed="13.89" length="9.93" width="4.00" shape="17.75,4.17 27.65,4.82"/>
    </edge>
    <edge id="E25" from="clusterJ11_J57" to="T4" priority="-1" shape="-117.22,-257.38 -115.76,-247.63 -113.61,-239.38 -110.72,-230.06 -106.01,-221.71 -98.04,-211.63 -88.28,-200.74 -84.58,-196.49 1.06,-57.57 9.19,-44.45 12.07,-38.48 12.99,-34.01 13.29,-28.86 14.74,-18.51">
        <lane id="E25_0" index="0" speed="13.89" length="277.32" width="3.00" shape="-121.83,-257.78 -120.17,-246.73 -117.94,-238.15 -114.88,-228.27 -109.76,-219.19 -101.48,-208.73 -91.64,-197.75 -88.22,-193.81 -2.77,-55.21 5.24,-42.28 7.77,-37.03 8.52,-33.42 8.81,-28.42 10.28,-17.89"/>
        <lane id="E25_1" index="1" speed="13.89" length="277.32" width="3.00" shape="-118.86,-258.22 -117.23,-247.33 -115.05,-238.97 -112.11,-229.46 -107.26,-220.87 -99.19,-210.66 -89.40,-199.74 -85.79,-195.60 -0.22,-56.78 7.87,-43.73 10.64,-38.00 11.50,-33.81 11.80,-28.71 13.25,-18.30"/>
    </edge>
    <edge id="E26" from="J28" to="M1" priority="-1" shape="262.19,478.54 238.73,460.31 230.20,450.50 215.09,431.50 203.73,415.37 192.13,400.94 181.12,387.71 175.07,375.25 163.13,353.58 155.92,337.36 148.11,322.26 140.78,306.88 71.42,150.62 30.58,58.66">
        <lane id="E26_0" index="0" speed="13.89" length="480.63" width="4.00" shape="265.87,473.80 242.87,455.93 234.81,446.66 219.89,427.90 208.53,411.76 196.77,397.14 186.20,384.43 180.40,372.49 168.51,350.91 161.33,334.76 153.48,319.59 146.23,304.37 76.90,148.19 36.79,57.87"/>
        <lane id="E26_1" index="1" speed="13.89" length="480.63" width="4.00" shape="263.42,476.96 240.11,458.85 231.74,449.22 216.69,430.30 205.33,414.17 193.68,399.67 182.81,386.62 176.85,374.33 164.92,352.69 157.72,336.49 149.90,321.37 142.60,306.04 73.25,149.81 33.14,59.49"/>
    </edge>
    <edge id="E27" from="J64" to="M8" priority="-1" shape="-310.53,340.25 -305.34,329.22 -67.80,41.84">
        <lane id="E27_0" index="0" speed="13.89" length="382.76" width="3.10" shape="-306.32,342.23 -301.38,331.73 -65.17,45.95"/>
        <lane id="E27_1" index="1" speed="13.89" length="382.76" width="3.10" shape="-309.13,340.91 -304.02,330.06 -67.56,43.98"/>
    </edge>
    <edge id="E3" from="T1" to="M6" priority="-1" shape="21.94,16.90 23.61,11.68 25.75,7.54 28.31,2.36 31.93,0.58 36.68,-0.38">
        <lane id="E3_0" index="0" speed="13.89" length="0.20" width="3.50" shape="28.15,4.39 28.33,4.30"/>
    </edge>
    <edge id="E4" from="T2" to="clusterJ0_M10" priority="-1" shape="18.60,17.68 15.61,9.26 10.63,3.71 5.94,0.70 2.97,1.03 -0.68,1.50 -3.87,1.76">
        <lane id="E4_0" index="0" speed="13.89" length="27.62" width="3.20" shape="22.09,13.17 19.82,6.76 13.77,0.02 7.10,-4.26 2.39,-3.74 1.15,-3.58"/>
        <lane id="E4_1" index="1" speed="13.89" length="27.62" width="3.20" shape="19.08,14.24 17.01,8.43 11.68,2.48 6.33,-0.95 2.78,-0.56 1.41,-0.38"/>
    </edge>
    <edge id="E5" from="T1" to="M5" priority="-1" shape="19.76,17.26 20.39,-0.61 19.72,-3.08 18.00,-8.35 16.69,-15.45">
        <lane id="E5_0" index="0" speed="13.89" length="3.65" width="3.50" shape="25.60,0.52 25.66,-1.22 25.04,-3.52"/>
        <lane id="E5_1" index="1" speed="13.89" length="3.65" width="3.50" shape="22.11,0.40 22.15,-0.81 21.64,-2.69"/>
    </edge>
    <edge id="E6" from="T5" to="M5" priority="-1" shape="38.24,-0.23 33.32,0.89 30.12,1.58 27.40,0.27 23.78,-3.32 21.07,-8.64 19.74,-18.40">
        <lane id="E6_0" index="0" speed="13.89" length="12.39" width="3.50" shape="36.84,-1.70 32.94,-0.82 30.34,-0.26 28.42,-1.18 25.86,-3.72"/>
    </edge>
    <edge id="E7" from="clusterJ11_J57" to="J12" priority="-1" shape="-123.11,-256.38 -121.68,-246.21 -119.31,-236.66 -115.94,-227.04 -110.73,-217.99 -102.29,-207.25 -92.65,-196.47 -89.50,-192.96 -4.58,-55.22 1.77,-44.95 4.02,-41.22 6.51,-36.52">
        <lane id="E7_0" index="0" speed="13.89" length="251.10" width="3.00" shape="-124.76,-257.37 -123.15,-245.92 -120.75,-236.23 -117.31,-226.41 -111.98,-217.15 -103.44,-206.29 -93.77,-195.47 -90.71,-192.06 -5.86,-54.43 0.49,-44.16 1.42,-42.62"/>
    </edge>
    <edge id="E8" from="J12" to="clusterJ1_M7" priority="-1" shape="6.51,-36.49 7.45,-29.89 6.28,-23.95 5.24,-20.73 3.91,-17.61 1.87,-14.31 -1.01,-11.02 -5.62,-6.93 -11.34,-2.99">
        <lane id="E8_0" index="0" speed="13.89" length="35.38" width="5.00" shape="4.03,-36.14 4.92,-29.96 3.86,-24.58 2.90,-21.61 1.68,-18.76 -0.15,-15.80 -2.79,-12.79 -7.16,-8.90 -10.54,-6.58"/>
    </edge>

    <tlLogic id="clusterJ26_J58" type="static" programID="0" offset="0">
        <phase duration="82" state="GGG"/>
        <phase duration="3"  state="yyy"/>
        <phase duration="50" state="rrr"/>
    </tlLogic>
    <tlLogic id="clusterJ39_J40" type="static" programID="0" offset="0">
        <phase duration="82" state="GG"/>
        <phase duration="3"  state="yy"/>
        <phase duration="5"  state="rr"/>
    </tlLogic>
    <tlLogic id="clusterJ41_J42_J43" type="static" programID="0" offset="0">
        <phase duration="82" state="GGG"/>
        <phase duration="3"  state="yyy"/>
        <phase duration="5"  state="rrr"/>
    </tlLogic>
    <tlLogic id="clusterJ44_J47" type="static" programID="0" offset="0">
        <phase duration="82" state="G"/>
        <phase duration="3"  state="y"/>
        <phase duration="5"  state="r"/>
    </tlLogic>
    <tlLogic id="clusterJ55_clusterJ51_J53" type="static" programID="0" offset="0">
        <phase duration="82" state="GGG"/>
        <phase duration="3"  state="yyy"/>
        <phase duration="5"  state="rrr"/>
    </tlLogic>

    <junction id="J12" type="priority" x="6.51" y="-36.52" incLanes="E7_0" intLanes=":J12_0_0" shape="6.51,-36.49 1.56,-35.78 1.34,-38.16 1.27,-39.01 1.10,-39.82 0.74,-40.74 0.09,-41.92 2.75,-43.33 4.50,-40.93 5.18,-40.10 5.74,-39.24 6.18,-38.11">
        <request index="0" response="0" foes="0" cont="0"/>
    </junction>
    <junction id="J28" type="dead_end" x="262.19" y="478.54" incLanes="E18_0 E18_1" intLanes="" shape="262.19,478.54 267.10,472.22 257.92,484.09"/>
    <junction id="J49" type="dead_end" x="-109.18" y="-258.82" incLanes="E21_0 E21_1" intLanes="" shape="-103.21,-259.44 -109.18,-258.82"/>
    <junction id="J6" type="dead_end" x="298.83" y="-164.06" incLanes="E2_0" intLanes="" shape="298.91,-163.91 297.56,-166.59 300.19,-161.38"/>
    <junction id="J64" type="dead_end" x="-310.53" y="340.25" incLanes="" intLanes="" shape="-310.53,340.25 -304.92,342.89"/>
    <junction id="J65" type="dead_end" x="-313.91" y="336.83" incLanes="E10_0 E10_1" intLanes="" shape="-318.06,331.77 -314.26,336.41"/>
    <junction id="M1" type="priority" x="30.36" y="58.98" incLanes="E26_0 E26_1" intLanes=":M1_0_0 :M1_1_0" shape="38.62,57.06 31.31,60.30 30.03,57.51 37.26,54.13">
        <request index="0" response="00" foes="00" cont="0"/>
        <request index="1" response="00" foes="00" cont="0"/>
    </junction>
    <junction id="M2" type="unregulated" x="18.35" y="24.81" incLanes="E17_0 E17_1 E16_0" intLanes=":M2_0_0 :M2_0_1 :M2_2_0" shape="13.01,20.93 19.91,22.11 19.47,24.10 19.30,24.81 19.22,25.51 19.27,26.36 19.47,27.48 12.64,29.00 11.86,26.92 11.34,26.31 10.69,25.76 9.89,25.13 8.90,24.26 11.68,21.37 12.31,21.79 12.55,21.78 12.75,21.64 12.90,21.36"/>
    <junction id="M3" type="unregulated" x="-16.34" y="6.70" incLanes="E15_0" intLanes=":M3_0_0" shape="-19.55,7.72 -18.81,11.65 -21.63,11.93 -22.63,11.84 -23.63,11.68 -24.85,11.53 -26.49,11.44 -26.38,8.69 -23.83,8.61 -22.94,8.47 -22.06,8.27 -20.99,8.02"/>
    <junction id="M4" type="priority" x="-27.16" y="4.51" incLanes="E14_0" intLanes=":M4_0_0" shape="-24.11,4.07 -22.59,8.83 -24.79,8.96 -25.62,8.71 -26.43,8.49 -27.36,8.49 -28.52,8.89 -29.94,6.02 -27.85,5.12 -27.09,4.89 -26.31,4.69 -25.37,4.45">
        <request index="0" response="0" foes="0" cont="0"/>
    </junction>
    <junction id="M5" type="unregulated" x="16.98" y="-18.66" incLanes="E5_0 E5_1 E23_0 E23_1 E6_0" intLanes=":M5_0_0 :M5_0_1 :M5_2_0 :M5_2_1 :M5_4_0" shape="27.86,-4.21 19.94,-2.28 19.07,-4.16 18.54,-4.45 17.95,-4.31 17.30,-3.73 16.58,-2.73 10.17,-5.66 12.34,-8.99 14.09,-11.50 15.42,-13.66 16.32,-15.93 16.78,-18.77 16.81,-22.66 22.81,-22.91 22.84,-18.63 22.77,-15.27 22.90,-12.49 23.58,-9.94 25.12,-7.29"/>
    <junction id="M6" type="unregulated" x="37.32" y="-0.10" incLanes="E24_0 E3_0 E20_0" intLanes=":M6_0_0 :M6_1_0 :M6_2_0" shape="33.25,1.73 34.47,4.46 32.00,5.79 31.11,6.29 30.21,6.64 29.07,6.83 27.52,6.81 27.78,2.82 25.60,7.59 24.05,4.45 23.98,3.30 25.13,-0.01 28.14,1.43 29.24,2.01 30.33,2.33 31.60,2.28"/>
    <junction id="M8" type="unregulated" x="-67.16" y="42.36" incLanes="E27_0 E27_1" intLanes=":M8_0_0 :M8_1_0" shape="-66.80,40.68 -62.20,44.55 -63.97,46.94 -68.75,42.99"/>
    <junction id="T1" type="traffic_light" x="21.94" y="16.90" incLanes="E0_0" intLanes=":T1_0_0 :T1_1_0 :T1_1_1" shape="20.36,0.34 27.35,0.59 27.57,1.72 27.89,2.00 28.35,2.09 28.94,1.99 29.67,1.69 33.89,3.75 31.00,4.75 28.77,6.44 27.20,8.81 26.30,11.87 26.07,15.63 26.49,20.07 22.54,20.69 21.80,16.38 21.18,13.20 20.71,10.56 20.41,7.92 20.28,4.70">
        <request index="0" response="000" foes="000" cont="0"/>
        <request index="1" response="000" foes="000" cont="0"/>
        <request index="2" response="000" foes="000" cont="0"/>
    </junction>
    <junction id="T2" type="traffic_light" x="18.89" y="17.58" incLanes="E1_0" intLanes=":T2_0_0 :T2_0_1" shape="22.98,22.47 18.98,22.54 18.87,19.60 18.74,18.57 18.51,17.57 18.13,16.37 17.57,14.77 23.60,12.63 24.12,14.63 24.15,16.15 23.87,17.45 23.47,18.76 23.11,20.36">
        <request index="0" response="00" foes="00" cont="0"/>
        <request index="1" response="00" foes="00" cont="0"/>
    </junction>
    <junction id="T3" type="traffic_light" x="-1.10" y="1.20" incLanes="E22_0" intLanes=":T3_0_0 :T3_1_0 :T3_1_1" shape="13.43,-10.90 15.85,-1.53 15.13,0.41 15.28,1.11 15.77,1.64 16.59,1.99 17.76,2.17 17.73,6.18 13.80,5.88 10.88,5.63 8.47,5.46 6.07,5.42 3.16,5.55 -0.76,5.89 -1.27,0.92 1.84,0.32 4.69,-0.83 7.27,-2.53 9.59,-4.77 11.64,-7.56">
        <request index="0" response="000" foes="000" cont="0"/>
        <request index="1" response="000" foes="000" cont="0"/>
        <request index="2" response="000" foes="000" cont="0"/>
    </junction>
    <junction id="T4" type="traffic_light" x="16.07" y="-17.33" incLanes="E25_0 E25_1" intLanes=":T4_0_0 :T4_0_1 :T4_2_0" shape="26.81,0.48 21.95,2.59 20.02,2.29 19.39,2.54 18.98,3.06 18.80,3.84 18.84,4.89 11.90,5.78 8.80,-17.68 14.74,-18.51 15.71,-13.42 17.10,-9.11 18.91,-5.56 21.12,-2.78 23.76,-0.77">
        <request index="0" response="000" foes="000" cont="0"/>
        <request index="1" response="000" foes="000" cont="0"/>
        <request index="2" response="000" foes="000" cont="0"/>
    </junction>
    <junction id="T5" type="traffic_light" x="37.98" y="-0.49" incLanes="-E2_0" intLanes=":T5_0_0" shape="37.80,-3.66 38.94,-0.88 38.31,-0.54 38.10,-0.38 37.89,-0.24 37.62,-0.11 37.22,0.00 36.45,-3.41 36.95,-3.49 37.14,-3.49 37.32,-3.51 37.53,-3.56">
        <request index="0" response="0" foes="0" cont="0"/>
    </junction>
    <junction id="clusterJ0_M10" type="priority" x="-2.53" y="-1.05" incLanes="E4_0 E4_1" intLanes=":clusterJ0_M10_0_0" shape="1.02,-5.17 1.54,1.21 -1.38,1.30 -2.42,1.15 -3.45,0.99 -4.70,0.91 -6.38,0.98 -6.94,-3.99">
        <request index="0" response="0" foes="0" cont="0"/>
    </junction>
    <junction id="clusterJ11_J57" type="dead_end" x="-119.74" y="-258.09" incLanes="" intLanes="" shape="-117.38,-258.44 -123.31,-257.55 -126.25,-257.17"/>
    <junction id="clusterJ1_M7" type="priority" x="-12.80" y="-1.24" incLanes="E8_0 E11_0" intLanes=":clusterJ1_M7_0_0 :clusterJ1_M7_1_0" shape="-11.96,-8.64 -9.12,-4.52 -8.86,-3.81 -8.39,1.17 -10.80,1.38 -12.59,1.53 -14.06,1.68 -15.51,1.90 -17.26,2.28 -19.60,2.87 -21.13,-2.94 -18.95,-3.62 -17.42,-4.34 -16.25,-5.15 -15.15,-6.10 -13.82,-7.25">
        <request index="0" response="00" foes="00" cont="0"/>
        <request index="1" response="00" foes="00" cont="0"/>
    </junction>

    <connection from="-E2" to="E6" fromLane="0" toLane="0" via=":T5_0_0" tl="clusterJ44_J47" linkIndex="0" dir="s" state="O"/>
    <connection from="E0" to="E3" fromLane="0" toLane="0" via=":T1_0_0" tl="clusterJ41_J42_J43" linkIndex="0" dir="L" state="O"/>
    <connection from="E0" to="E5" fromLane="0" toLane="0" via=":T1_1_0" tl="clusterJ41_J42_J43" linkIndex="1" dir="s" state="O"/>
    <connection from="E0" to="E5" fromLane="0" toLane="1" via=":T1_1_1" tl="clusterJ41_J42_J43" linkIndex="2" dir="s" state="O"/>
    <connection from="E1" to="E4" fromLane="0" toLane="0" via=":T2_0_0" tl="clusterJ39_J40" linkIndex="0" dir="s" state="O"/>
    <connection from="E1" to="E4" fromLane="0" toLane="1" via=":T2_0_1" tl="clusterJ39_J40" linkIndex="1" dir="s" state="O"/>
    <connection from="E11" to="E10" fromLane="0" toLane="1" via=":clusterJ1_M7_1_0" dir="s" state="M"/>
    <connection from="E14" to="E22" fromLane="0" toLane="0" via=":M4_0_0" dir="s" state="M"/>
    <connection from="E15" to="E16" fromLane="0" toLane="0" via=":M3_0_0" dir="s" state="M"/>
    <connection from="E16" to="E18" fromLane="0" toLane="0" via=":M2_2_0" dir="s" state="M"/>
    <connection from="E17" to="E18" fromLane="0" toLane="0" via=":M2_0_0" dir="s" state="M"/>
    <connection from="E17" to="E18" fromLane="1" toLane="1" via=":M2_0_1" dir="s" state="M"/>
    <connection from="E20" to="E2" fromLane="0" toLane="0" via=":M6_2_0" dir="s" state="M"/>
    <connection from="E22" to="E24" fromLane="0" toLane="0" via=":T3_0_0" tl="clusterJ55_clusterJ51_J53" linkIndex="0" dir="L" state="O"/>
    <connection from="E22" to="E23" fromLane="0" toLane="0" via=":T3_1_0" tl="clusterJ55_clusterJ51_J53" linkIndex="1" dir="s" state="O"/>
    <connection from="E22" to="E23" fromLane="0" toLane="1" via=":T3_1_1" tl="clusterJ55_clusterJ51_J53" linkIndex="2" dir="s" state="O"/>
    <connection from="E23" to="E21" fromLane="0" toLane="0" via=":M5_2_0" dir="s" state="M"/>
    <connection from="E23" to="E21" fromLane="1" toLane="1" via=":M5_2_1" dir="s" state="M"/>
    <connection from="E24" to="E2" fromLane="0" toLane="0" via=":M6_0_0" dir="s" state="M"/>
    <connection from="E25" to="E17" fromLane="0" toLane="0" via=":T4_0_0" tl="clusterJ26_J58" linkIndex="0" dir="s" state="O"/>
    <connection from="E25" to="E17" fromLane="1" toLane="1" via=":T4_0_1" tl="clusterJ26_J58" linkIndex="1" dir="s" state="O"/>
    <connection from="E25" to="E20" fromLane="1" toLane="0" via=":T4_2_0" tl="clusterJ26_J58" linkIndex="2" dir="s" state="O"/>
    <connection from="E26" to="E0" fromLane="0" toLane="0" via=":M1_0_0" dir="s" state="M"/>
    <connection from="E26" to="E1" fromLane="1" toLane="0" via=":M1_1_0" dir="s" state="M"/>
    <connection from="E27" to="E15" fromLane="0" toLane="0" via=":M8_0_0" dir="s" state="M"/>
    <connection from="E27" to="E14" fromLane="1" toLane="0" via=":M8_1_0" dir="s" state="M"/>
    <connection from="E3" to="E2" fromLane="0" toLane="0" via=":M6_1_0" dir="s" state="M"/>
    <connection from="E4" to="E11" fromLane="1" toLane="0" via=":clusterJ0_M10_0_0" dir="s" state="M"/>
    <connection from="E5" to="E21" fromLane="0" toLane="0" via=":M5_0_0" dir="s" state="M"/>
    <connection from="E5" to="E21" fromLane="1" toLane="1" via=":M5_0_1" dir="s" state="M"/>
    <connection from="E6" to="E21" fromLane="0" toLane="0" via=":M5_4_0" dir="s" state="M"/>
    <connection from="E7" to="E8" fromLane="0" toLane="0" via=":J12_0_0" dir="s" state="M"/>